<?xml version="1.0" encoding="UTF-8"?>
<routes xmlns="http://camel.apache.org/schema/spring">
  
   <route id="caseSubmissionRoute">
       <from uri="activemq://CASE_SUBMISSION.QUEUE?concurrentConsumers=1"/>       
       <doTry>
       		<to uri="bean:caseSubmissionProcessor"/>
        <doCatch>
            <exception>java.lang.Exception</exception>
            <to uri="bean:caseActivityLogProcessor"/>
        </doCatch>       
       </doTry>       
   </route>
  
</routes>