<?xml version="1.0" encoding="UTF-8"?>
<routes xmlns="http://camel.apache.org/schema/spring">

	<route id="commisionIdentification" shortName="commisionIdentification">
                 <from uri="quartz://timerName?cron=0+0/5+13-18+?+*+MON-FRI"/>
                 <to uri="commissionIdentificationProcessor" />
 	</route>
 	<route id="commision_generation" shortName="commision_generation" >
	             <from uri="activemq://job_process_queue?selector=routeId%3D%27commision_generation%27"/>
                 <to uri="commissionGenerationProcessor"/>
  	</route>
 	
</routes>
