<?xml version="1.0" encoding="UTF-8"?>
<routes xmlns="http://camel.apache.org/schema/spring">
  
  
  <route id="coverage_change" shortName="coverageChange" >
  	 <from uri="activemq://job_process_queue?selector=routeId%3D%27coverage_change%27"/>
  	 <to uri="coverageChangeProcessor"/>
  	 <to uri="activemq:APPLICATION_SUBMISSION.QUEUE"/>
  </route>
  
  
</routes>
