<?xml version="1.0" encoding="UTF-8"?>
<routes xmlns="http://camel.apache.org/schema/spring">

	<!-- fire at 1am everyday -->
	<route id="purgeErrorLog" shortName="purgeErrorLog">
                 <from uri="quartz://purgeTime?cron=0+0+1+*+*+?+*"/>
                 <!-- <from uri="quartz://purgeTime?cron=1+*+*+*+*+?"/> -->
                 <to uri="errorLogPurgeProcessor" />
 	</route>
 	
 	
</routes>
